gigpower/src/fbs/tests/IEEE_feeder_results/37_allwye_noxfm_noreg_fbs_out.txt
============================= test session starts ==============================
platform darwin -- Python 3.7.4, pytest-6.0.1, py-1.9.0, pluggy-0.13.1
rootdir: /Users/elainelaguerta/Dropbox/LBNL/LinDist3Flow/fbs
collected 1 item

fbs/tests/test_compare_opendss.py 

Testing File: /Users/elainelaguerta/Dropbox/LBNL/python-powerflow/IEEE_37_feeder_UB/IEEE_37_Bus_allwye_noxfm_noreg.dss

Opendss Iterations: 3	Opendss Convergence: 0.0001
FBS iterations: 7	 FBS convergence:        3.676858328067107e-10	 FBS tolerance: 1e-09
COMPARE V - SUMMARY STATS
                      A      B      C
MAX |fbs - dss|  0.0008 0.0002 0.0002
SUM |fbs - dss|  0.0141 0.0026 0.0038
MEAN |fbs - dss| 0.0004 0.0001 0.0001 

COMPARE V - ERROR, |fbs - dss|:
            A.(fbs - dss)   B.(fbs - dss)   C.(fbs - dss)
sourcebus  0.0000+0.0000j  0.0000-0.0000j -0.0000+0.0000j
701       -0.0001+0.0000j  0.0000+0.0000j -0.0000-0.0000j
702       -0.0002+0.0000j  0.0000+0.0000j -0.0000-0.0000j
705       -0.0002+0.0000j  0.0000+0.0000j -0.0000-0.0000j
713       -0.0002+0.0000j  0.0000+0.0000j -0.0000-0.0000j
703       -0.0003+0.0000j  0.0000+0.0000j -0.0001-0.0000j
727       -0.0003+0.0000j  0.0000+0.0000j -0.0001-0.0000j
730       -0.0004+0.0000j -0.0000+0.0001j -0.0001-0.0000j
704       -0.0002+0.0000j  0.0000+0.0000j -0.0000-0.0000j
714       -0.0002+0.0000j  0.0000+0.0000j -0.0000-0.0000j
720       -0.0002+0.0000j  0.0000+0.0000j -0.0000-0.0000j
742       -0.0002+0.0000j  0.0000+0.0000j -0.0000-0.0000j
712       -0.0002+0.0000j  0.0000+0.0000j -0.0000-0.0000j
706       -0.0002+0.0000j  0.0000+0.0000j -0.0000-0.0000j
725       -0.0002+0.0000j  0.0000+0.0000j -0.0000-0.0000j
707       -0.0002+0.0000j  0.0000+0.0000j -0.0000-0.0000j
724       -0.0002+0.0000j  0.0000+0.0000j -0.0000-0.0000j
722       -0.0002+0.0000j  0.0000+0.0000j -0.0000-0.0000j
708       -0.0005+0.0000j -0.0000+0.0001j -0.0001-0.0000j
733       -0.0006+0.0000j -0.0001+0.0001j -0.0001-0.0000j
732       -0.0005+0.0000j -0.0000+0.0001j -0.0001-0.0000j
709       -0.0004+0.0000j -0.0000+0.0001j -0.0001-0.0000j
731       -0.0004+0.0000j -0.0000+0.0001j -0.0001-0.0000j
710       -0.0007+0.0000j -0.0001+0.0001j -0.0002-0.0000j
735       -0.0007+0.0000j -0.0001+0.0001j -0.0002-0.0000j
736       -0.0007+0.0001j -0.0001+0.0001j -0.0002-0.0000j
711       -0.0008+0.0000j -0.0002+0.0001j -0.0002-0.0000j
741       -0.0008+0.0000j -0.0002+0.0001j -0.0002-0.0000j
740       -0.0008+0.0000j -0.0002+0.0001j -0.0002-0.0000j
718       -0.0002+0.0000j  0.0000+0.0000j -0.0000-0.0000j
744       -0.0003+0.0000j  0.0000+0.0000j -0.0001-0.0000j
734       -0.0007+0.0000j -0.0001+0.0001j -0.0002-0.0000j
737       -0.0008+0.0000j -0.0001+0.0001j -0.0002-0.0000j
738       -0.0008+0.0000j -0.0001+0.0001j -0.0002-0.0000j
728       -0.0003+0.0000j  0.0000+0.0000j -0.0001-0.0000j
729       -0.0003+0.0000j  0.0000+0.0000j -0.0001-0.0000j
799r       0.0000+0.0000j  0.0000-0.0000j -0.0000+0.0000j
799        0.0000+0.0000j  0.0000-0.0000j -0.0000+0.0000j
775       -0.0004+0.0000j -0.0000+0.0001j -0.0001-0.0000j 

COMPARE V - FBS RESULTS
                       A               B               C
sourcebus 1.0000+0.0000j -0.5000-0.8660j -0.5000+0.8660j
701       0.9841-0.0035j -0.4993-0.8553j -0.4882+0.8559j
702       0.9754-0.0057j -0.4987-0.8494j -0.4820+0.8512j
705       0.9746-0.0058j -0.4980-0.8489j -0.4813+0.8496j
713       0.9741-0.0060j -0.4977-0.8482j -0.4806+0.8493j
703       0.9667-0.0075j -0.4985-0.8439j -0.4778+0.8485j
727       0.9654-0.0072j -0.4981-0.8431j -0.4777+0.8480j
730       0.9595-0.0078j -0.4978-0.8407j -0.4764+0.8454j
704       0.9731-0.0061j -0.4960-0.8462j -0.4786+0.8473j
714       0.9729-0.0060j -0.4959-0.8460j -0.4786+0.8473j
720       0.9728-0.0067j -0.4939-0.8448j -0.4757+0.8438j
742       0.9747-0.0058j -0.4974-0.8484j -0.4808+0.8490j
712       0.9740-0.0059j -0.4981-0.8491j -0.4812+0.8490j
706       0.9730-0.0067j -0.4935-0.8446j -0.4753+0.8435j
725       0.9731-0.0067j -0.4932-0.8444j -0.4751+0.8433j
707       0.9735-0.0067j -0.4900-0.8420j -0.4728+0.8396j
724       0.9737-0.0067j -0.4893-0.8414j -0.4723+0.8389j
722       0.9736-0.0067j -0.4896-0.8417j -0.4726+0.8392j
708       0.9539-0.0077j -0.4974-0.8380j -0.4758+0.8437j
733       0.9506-0.0076j -0.4973-0.8364j -0.4756+0.8430j
732       0.9535-0.0078j -0.4975-0.8381j -0.4757+0.8433j
709       0.9574-0.0077j -0.4975-0.8396j -0.4760+0.8446j
731       0.9577-0.0077j -0.4969-0.8390j -0.4753+0.8441j
710       0.9445-0.0078j -0.4967-0.8343j -0.4745+0.8398j
735       0.9441-0.0079j -0.4968-0.8344j -0.4744+0.8393j
736       0.9449-0.0078j -0.4955-0.8333j -0.4736+0.8386j
711       0.9385-0.0076j -0.4972-0.8316j -0.4750+0.8400j
741       0.9382-0.0077j -0.4973-0.8317j -0.4750+0.8398j
740       0.9381-0.0077j -0.4973-0.8317j -0.4749+0.8396j
718       0.9717-0.0056j -0.4954-0.8449j -0.4788+0.8477j
744       0.9647-0.0071j -0.4978-0.8424j -0.4775+0.8479j
734       0.9456-0.0077j -0.4971-0.8343j -0.4751+0.8415j
737       0.9413-0.0072j -0.4969-0.8318j -0.4753+0.8414j
738       0.9395-0.0073j -0.4970-0.8312j -0.4752+0.8409j
728       0.9643-0.0070j -0.4976-0.8421j -0.4774+0.8475j
729       0.9643-0.0069j -0.4977-0.8421j -0.4776+0.8480j
799r      0.9998+0.0001j -0.4998-0.8659j -0.5000+0.8658j
799       0.9999+0.0001j -0.4999-0.8660j -0.5000+0.8659j
775       0.9574-0.0077j -0.4975-0.8396j -0.4760+0.8446j 

COMPARE V - DSS RESULTS
                       A               B               C
sourcebus 1.0000-0.0000j -0.5000-0.8660j -0.5000+0.8660j
701       0.9842-0.0035j -0.4993-0.8553j -0.4882+0.8559j
702       0.9755-0.0058j -0.4987-0.8494j -0.4820+0.8512j
705       0.9748-0.0058j -0.4980-0.8489j -0.4812+0.8496j
713       0.9743-0.0061j -0.4977-0.8482j -0.4805+0.8493j
703       0.9670-0.0075j -0.4986-0.8439j -0.4778+0.8485j
727       0.9657-0.0072j -0.4981-0.8431j -0.4776+0.8480j
730       0.9599-0.0078j -0.4978-0.8408j -0.4763+0.8454j
704       0.9733-0.0062j -0.4960-0.8463j -0.4786+0.8473j
714       0.9731-0.0061j -0.4959-0.8460j -0.4786+0.8474j
720       0.9730-0.0068j -0.4939-0.8449j -0.4757+0.8439j
742       0.9749-0.0058j -0.4974-0.8484j -0.4808+0.8490j
712       0.9742-0.0059j -0.4981-0.8491j -0.4811+0.8490j
706       0.9732-0.0068j -0.4935-0.8446j -0.4753+0.8436j
725       0.9732-0.0068j -0.4933-0.8444j -0.4751+0.8433j
707       0.9737-0.0068j -0.4901-0.8420j -0.4728+0.8396j
724       0.9739-0.0068j -0.4893-0.8415j -0.4723+0.8389j
722       0.9737-0.0068j -0.4897-0.8418j -0.4725+0.8392j
708       0.9544-0.0078j -0.4974-0.8381j -0.4757+0.8437j
733       0.9511-0.0077j -0.4972-0.8364j -0.4754+0.8431j
732       0.9540-0.0078j -0.4974-0.8382j -0.4756+0.8434j
709       0.9578-0.0078j -0.4975-0.8396j -0.4759+0.8447j
731       0.9582-0.0078j -0.4968-0.8391j -0.4752+0.8441j
710       0.9452-0.0079j -0.4966-0.8343j -0.4743+0.8398j
735       0.9447-0.0079j -0.4967-0.8345j -0.4742+0.8393j
736       0.9456-0.0079j -0.4954-0.8334j -0.4734+0.8386j
711       0.9394-0.0076j -0.4970-0.8316j -0.4748+0.8401j
741       0.9391-0.0078j -0.4971-0.8317j -0.4747+0.8398j
740       0.9389-0.0077j -0.4971-0.8317j -0.4747+0.8396j
718       0.9719-0.0056j -0.4955-0.8449j -0.4788+0.8477j
744       0.9649-0.0071j -0.4979-0.8425j -0.4775+0.8479j
734       0.9463-0.0077j -0.4970-0.8344j -0.4749+0.8415j
737       0.9420-0.0073j -0.4968-0.8319j -0.4751+0.8414j
738       0.9403-0.0073j -0.4968-0.8313j -0.4750+0.8409j
728       0.9645-0.0070j -0.4976-0.8422j -0.4773+0.8476j
729       0.9646-0.0070j -0.4977-0.8422j -0.4775+0.8480j
799r      0.9997+0.0001j -0.4998-0.8659j -0.5000+0.8658j
799       0.9999+0.0000j -0.4999-0.8660j -0.5000+0.8659j
775       0.9578-0.0078j -0.4975-0.8396j -0.4759+0.8447j 

~~~~~~~~~~~~~~~~~~~~~~~~~~~~~~~~~~~~~~~~~~~~~~~~~~~~~~~~~~~~~~~~~~~~~~~~~~~~~~~~~~~~~~~~~~~~~~~~~~~~ 

COMPARE VMag - SUMMARY STATS
                      A      B      C
MAX |fbs - dss|  0.0008 0.0000 0.0001
SUM |fbs - dss|  0.0140 0.0012 0.0012
MEAN |fbs - dss| 0.0004 0.0000 0.0000 

COMPARE VMag - ERROR, |fbs - dss|:
           A.(fbs - dss)  B.(fbs - dss)  C.(fbs - dss)
sourcebus         0.0000         0.0000         0.0000
701              -0.0001        -0.0000        -0.0000
702              -0.0002        -0.0000         0.0000
705              -0.0002        -0.0000        -0.0000
713              -0.0002        -0.0000        -0.0000
703              -0.0003        -0.0000         0.0000
727              -0.0003        -0.0000         0.0000
730              -0.0004        -0.0000         0.0000
704              -0.0002        -0.0000        -0.0000
714              -0.0002        -0.0000        -0.0000
720              -0.0002        -0.0000        -0.0000
742              -0.0002        -0.0000        -0.0000
712              -0.0002        -0.0000        -0.0000
706              -0.0002        -0.0000        -0.0000
725              -0.0002        -0.0000        -0.0000
707              -0.0002        -0.0000        -0.0000
724              -0.0002        -0.0000        -0.0000
722              -0.0002        -0.0000        -0.0000
708              -0.0005        -0.0000         0.0000
733              -0.0006        -0.0000         0.0001
732              -0.0005        -0.0000         0.0000
709              -0.0004        -0.0000         0.0000
731              -0.0004        -0.0000         0.0000
710              -0.0007         0.0000         0.0001
735              -0.0007         0.0000         0.0001
736              -0.0007         0.0000         0.0001
711              -0.0008         0.0000         0.0001
741              -0.0008         0.0000         0.0001
740              -0.0008         0.0000         0.0001
718              -0.0002        -0.0000        -0.0000
744              -0.0003        -0.0000         0.0000
734              -0.0007         0.0000         0.0001
737              -0.0008         0.0000         0.0001
738              -0.0008         0.0000         0.0001
728              -0.0003        -0.0000         0.0000
729              -0.0003        -0.0000         0.0000
799r              0.0000         0.0000         0.0000
799               0.0000         0.0000         0.0000
775              -0.0004        -0.0000         0.0000 

COMPARE VMag - FBS RESULTS
               A      B      C
sourcebus 1.0000 1.0000 1.0000
701       0.9841 0.9904 0.9854
702       0.9754 0.9849 0.9782
705       0.9746 0.9842 0.9764
713       0.9742 0.9834 0.9759
703       0.9667 0.9801 0.9738
727       0.9654 0.9792 0.9733
730       0.9595 0.9771 0.9704
704       0.9731 0.9809 0.9732
714       0.9729 0.9806 0.9732
720       0.9728 0.9786 0.9687
742       0.9747 0.9834 0.9757
712       0.9741 0.9844 0.9759
706       0.9730 0.9782 0.9682
725       0.9731 0.9779 0.9679
707       0.9735 0.9742 0.9636
724       0.9738 0.9734 0.9627
722       0.9736 0.9738 0.9631
708       0.9539 0.9745 0.9686
733       0.9506 0.9730 0.9679
732       0.9535 0.9746 0.9683
709       0.9574 0.9759 0.9695
731       0.9578 0.9751 0.9687
710       0.9446 0.9710 0.9645
735       0.9441 0.9711 0.9641
736       0.9450 0.9695 0.9631
711       0.9386 0.9689 0.9651
741       0.9383 0.9690 0.9648
740       0.9381 0.9690 0.9646
718       0.9717 0.9795 0.9735
744       0.9647 0.9785 0.9731
734       0.9456 0.9712 0.9663
737       0.9413 0.9689 0.9663
738       0.9395 0.9685 0.9659
728       0.9643 0.9781 0.9727
729       0.9644 0.9782 0.9732
799r      0.9998 0.9998 0.9998
799       0.9999 0.9999 0.9999
775       0.9574 0.9759 0.9695 

COMPARE VMag - DSS RESULTS
               A      B      C
sourcebus 1.0000 1.0000 1.0000
701       0.9842 0.9904 0.9854
702       0.9756 0.9850 0.9782
705       0.9748 0.9843 0.9764
713       0.9743 0.9834 0.9759
703       0.9670 0.9802 0.9738
727       0.9657 0.9793 0.9732
730       0.9599 0.9771 0.9704
704       0.9733 0.9809 0.9732
714       0.9731 0.9807 0.9732
720       0.9730 0.9786 0.9687
742       0.9749 0.9835 0.9757
712       0.9742 0.9844 0.9759
706       0.9732 0.9782 0.9683
725       0.9733 0.9779 0.9679
707       0.9737 0.9743 0.9636
724       0.9740 0.9734 0.9627
722       0.9738 0.9738 0.9631
708       0.9544 0.9745 0.9686
733       0.9512 0.9730 0.9679
732       0.9540 0.9747 0.9682
709       0.9579 0.9759 0.9695
731       0.9582 0.9751 0.9687
710       0.9452 0.9710 0.9645
735       0.9448 0.9711 0.9640
736       0.9456 0.9695 0.9630
711       0.9394 0.9688 0.9649
741       0.9391 0.9690 0.9647
740       0.9389 0.9690 0.9645
718       0.9719 0.9795 0.9736
744       0.9650 0.9786 0.9731
734       0.9463 0.9712 0.9663
737       0.9420 0.9689 0.9662
738       0.9403 0.9684 0.9658
728       0.9646 0.9782 0.9727
729       0.9646 0.9783 0.9732
799r      0.9997 0.9998 0.9998
799       0.9999 0.9999 0.9999
775       0.9579 0.9759 0.9695 

~~~~~~~~~~~~~~~~~~~~~~~~~~~~~~~~~~~~~~~~~~~~~~~~~~~~~~~~~~~~~~~~~~~~~~~~~~~~~~~~~~~~~~~~~~~~~~~~~~~~ 

COMPARE I - SUMMARY STATS
                      A      B      C
MAX |fbs - dss|  0.0065 0.0022 0.0021
SUM |fbs - dss|  0.0729 0.0153 0.0142
MEAN |fbs - dss| 0.0019 0.0004 0.0004 

COMPARE I - ERROR, |fbs - dss|:
                A.(fbs - dss)   B.(fbs - dss)  C.(fbs - dss)
line_701_702   0.0047-0.0040j -0.0015+0.0009j 0.0014+0.0008j
line_702_705   0.0000-0.0001j -0.0001+0.0000j 0.0001+0.0000j
line_702_713   0.0000-0.0005j -0.0004+0.0002j 0.0004+0.0002j
line_702_703   0.0047-0.0033j -0.0009+0.0005j 0.0008+0.0005j
line_703_727   0.0000-0.0001j -0.0001+0.0000j 0.0001+0.0000j
line_703_730   0.0046-0.0030j -0.0006+0.0004j 0.0005+0.0003j
line_704_714   0.0000-0.0001j -0.0000+0.0000j 0.0000+0.0000j
line_704_720   0.0000-0.0003j -0.0003+0.0002j 0.0003+0.0002j
line_705_742   0.0000-0.0000j -0.0000+0.0000j 0.0000+0.0000j
line_705_712   0.0000-0.0000j -0.0000+0.0000j 0.0000+0.0000j
line_706_725  -0.0000-0.0000j -0.0000+0.0000j 0.0000+0.0000j
line_707_724  -0.0000-0.0001j -0.0001+0.0000j 0.0001+0.0000j
line_707_722   0.0000-0.0000j -0.0000+0.0000j 0.0000+0.0000j
line_708_733   0.0046-0.0027j -0.0004+0.0003j 0.0004+0.0002j
line_708_732   0.0000-0.0000j -0.0000+0.0000j 0.0000+0.0000j
line_709_731  -0.0000-0.0001j -0.0001+0.0000j 0.0001+0.0000j
line_709_708   0.0046-0.0028j -0.0005+0.0003j 0.0004+0.0002j
line_710_735   0.0005-0.0002j -0.0000+0.0000j 0.0000+0.0000j
line_710_736  -0.0000-0.0001j -0.0001+0.0001j 0.0001+0.0001j
line_711_741   0.0005-0.0003j -0.0000+0.0000j 0.0000+0.0000j
line_711_740   0.0010-0.0005j -0.0000+0.0000j 0.0000+0.0000j
line_713_704   0.0000-0.0004j -0.0004+0.0002j 0.0004+0.0002j
line_714_718   0.0000-0.0000j -0.0000+0.0000j 0.0000+0.0000j
line_720_707   0.0000-0.0002j -0.0001+0.0001j 0.0001+0.0001j
line_720_706  -0.0000-0.0001j -0.0001+0.0000j 0.0001+0.0000j
line_727_744   0.0000-0.0001j -0.0001+0.0000j 0.0001+0.0000j
line_730_709   0.0046-0.0029j -0.0006+0.0003j 0.0005+0.0003j
line_733_734   0.0046-0.0027j -0.0004+0.0002j 0.0003+0.0002j
line_734_737   0.0040-0.0022j -0.0002+0.0001j 0.0002+0.0001j
line_734_710   0.0005-0.0004j -0.0001+0.0001j 0.0001+0.0001j
line_737_738   0.0028-0.0015j -0.0001+0.0001j 0.0001+0.0001j
line_738_711   0.0015-0.0008j -0.0001+0.0001j 0.0001+0.0000j
line_744_728   0.0000-0.0000j -0.0000+0.0000j 0.0000+0.0000j
line_744_729   0.0000-0.0000j -0.0000+0.0000j 0.0000+0.0000j
line_799r_701  0.0047-0.0045j -0.0019+0.0011j 0.0018+0.0011j
line_sbs_799   0.0047-0.0045j -0.0019+0.0011j 0.0018+0.0011j
line_799_799r  0.0047-0.0045j -0.0019+0.0011j 0.0018+0.0011j
line_709_775   0.0000+0.0000j -0.0000+0.0000j 0.0000+0.0000j 

COMPARE I - FBS RESULTS
                           A               B               C
line_701_702  0.6846-0.3372j -0.5145-0.3391j -0.0450+0.7038j
line_702_705  0.0473-0.0227j -0.0430-0.0294j -0.0072+0.0954j
line_702_713  0.1491-0.0714j -0.1638-0.1090j -0.0151+0.2481j
line_702_703  0.4882-0.2431j -0.3077-0.2008j -0.0227+0.3603j
line_703_727  0.1075-0.0547j -0.0802-0.0518j -0.0035+0.0718j
line_703_730  0.3806-0.1884j -0.2275-0.1490j -0.0191+0.2885j
line_704_714  0.0520-0.0248j -0.0570-0.0390j -0.0008+0.0118j
line_704_720  0.0539-0.0259j -0.1068-0.0700j -0.0107+0.1885j
line_705_742  0.0041-0.0021j -0.0430-0.0294j -0.0036+0.0477j
line_705_712  0.0432-0.0207j -0.0000+0.0000j -0.0036+0.0477j
line_706_725  0.0000+0.0000j -0.0200-0.0131j -0.0012+0.0240j
line_707_724  0.0000+0.0000j -0.0200-0.0131j -0.0012+0.0241j
line_707_722  0.0107-0.0052j -0.0668-0.0438j -0.0048+0.0924j
line_708_733  0.3153-0.1563j -0.1879-0.1221j -0.0109+0.1686j
line_708_732  0.0217-0.0111j -0.0000+0.0000j -0.0012+0.0240j
line_709_731  0.0000+0.0000j -0.0396-0.0269j -0.0035+0.0480j
line_709_708  0.3370-0.1674j -0.1879-0.1221j -0.0121+0.1926j
line_710_735  0.0442-0.0213j -0.0000+0.0000j -0.0036+0.0482j
line_710_736  0.0000+0.0000j -0.0202-0.0130j -0.0012+0.0241j
line_711_741  0.0220-0.0112j -0.0000+0.0000j -0.0012+0.0241j
line_711_740  0.0444-0.0214j -0.0000+0.0000j -0.0036+0.0481j
line_713_704  0.1059-0.0507j -0.1638-0.1090j -0.0115+0.2004j
line_714_718  0.0433-0.0207j -0.0394-0.0270j  0.0000+0.0000j
line_720_707  0.0107-0.0052j -0.0868-0.0569j -0.0060+0.1165j
line_720_706  0.0000+0.0000j -0.0200-0.0131j -0.0012+0.0240j
line_727_744  0.0860-0.0438j -0.0802-0.0518j -0.0024+0.0479j
line_730_709  0.3370-0.1674j -0.2275-0.1490j -0.0156+0.2406j
line_733_734  0.2713-0.1352j -0.1481-0.0952j -0.0109+0.1686j
line_734_737  0.2052-0.1028j -0.1279-0.0823j -0.0048+0.0722j
line_734_710  0.0442-0.0213j -0.0202-0.0130j -0.0048+0.0723j
line_737_738  0.1322-0.0656j -0.0604-0.0391j -0.0048+0.0722j
line_738_711  0.0664-0.0326j -0.0000+0.0000j -0.0048+0.0722j
line_744_728  0.0430-0.0219j -0.0401-0.0259j -0.0024+0.0479j
line_744_729  0.0215-0.0109j -0.0201-0.0129j  0.0000+0.0000j
line_799r_701 0.9321-0.4621j -0.6465-0.4253j -0.0601+0.9804j
line_sbs_799  0.9321-0.4621j -0.6465-0.4253j -0.0601+0.9804j
line_799_799r 0.9321-0.4621j -0.6465-0.4253j -0.0601+0.9804j
line_709_775  0.0000+0.0000j -0.0000+0.0000j  0.0000+0.0000j 

COMPARE I - DSS RESULTS
                           A               B               C
line_701_702  0.6799-0.3332j -0.5130-0.3400j -0.0464+0.7030j
line_702_705  0.0473-0.0226j -0.0430-0.0294j -0.0073+0.0954j
line_702_713  0.1491-0.0709j -0.1634-0.1092j -0.0155+0.2478j
line_702_703  0.4835-0.2398j -0.3068-0.2013j -0.0235+0.3599j
line_703_727  0.1075-0.0546j -0.0801-0.0518j -0.0036+0.0718j
line_703_730  0.3760-0.1854j -0.2269-0.1494j -0.0197+0.2882j
line_704_714  0.0520-0.0248j -0.0569-0.0390j -0.0009+0.0118j
line_704_720  0.0539-0.0256j -0.1065-0.0701j -0.0110+0.1884j
line_705_742  0.0041-0.0020j -0.0430-0.0294j -0.0036+0.0477j
line_705_712  0.0432-0.0206j  0.0000-0.0000j -0.0036+0.0477j
line_706_725  0.0000+0.0000j -0.0200-0.0131j -0.0012+0.0240j
line_707_724  0.0000+0.0001j -0.0200-0.0132j -0.0012+0.0241j
line_707_722  0.0107-0.0052j -0.0668-0.0438j -0.0048+0.0924j
line_708_733  0.3107-0.1536j -0.1874-0.1224j -0.0113+0.1684j
line_708_732  0.0217-0.0110j  0.0000-0.0000j -0.0012+0.0240j
line_709_731  0.0000+0.0001j -0.0396-0.0269j -0.0036+0.0480j
line_709_708  0.3323-0.1646j -0.1874-0.1224j -0.0125+0.1924j
line_710_735  0.0437-0.0210j  0.0000-0.0000j -0.0036+0.0481j
line_710_736  0.0000+0.0001j -0.0201-0.0130j -0.0013+0.0241j
line_711_741  0.0215-0.0109j  0.0000-0.0000j -0.0013+0.0241j
line_711_740  0.0435-0.0209j  0.0000-0.0000j -0.0036+0.0481j
line_713_704  0.1059-0.0503j -0.1634-0.1092j -0.0119+0.2001j
line_714_718  0.0433-0.0206j -0.0393-0.0270j -0.0000-0.0000j
line_720_707  0.0107-0.0050j -0.0867-0.0570j -0.0061+0.1164j
line_720_706  0.0000+0.0001j -0.0199-0.0131j -0.0013+0.0240j
line_727_744  0.0860-0.0437j -0.0801-0.0518j -0.0024+0.0479j
line_730_709  0.3323-0.1645j -0.2269-0.1493j -0.0161+0.2403j
line_733_734  0.2667-0.1325j -0.1478-0.0955j -0.0112+0.1684j
line_734_737  0.2013-0.1006j -0.1277-0.0824j -0.0050+0.0721j
line_734_710  0.0437-0.0209j -0.0201-0.0131j -0.0050+0.0722j
line_737_738  0.1294-0.0641j -0.0603-0.0392j -0.0050+0.0722j
line_738_711  0.0649-0.0317j  0.0001-0.0001j -0.0049+0.0722j
line_744_728  0.0430-0.0219j -0.0401-0.0259j -0.0024+0.0479j
line_744_729  0.0215-0.0109j -0.0200-0.0130j -0.0000-0.0000j
line_799r_701 0.9274-0.4576j -0.6446-0.4265j -0.0619+0.9793j
line_sbs_799  0.9274-0.4576j -0.6446-0.4265j -0.0619+0.9793j
line_799_799r 0.9274-0.4576j -0.6446-0.4265j -0.0619+0.9793j
line_709_775  0.0000+0.0000j  0.0000+0.0000j  0.0000+0.0000j 

~~~~~~~~~~~~~~~~~~~~~~~~~~~~~~~~~~~~~~~~~~~~~~~~~~~~~~~~~~~~~~~~~~~~~~~~~~~~~~~~~~~~~~~~~~~~~~~~~~~~ 

COMPARE Stx - SUMMARY STATS
                      A      B      C
MAX |fbs - dss|  0.0065 0.0022 0.0021
SUM |fbs - dss|  0.0694 0.0150 0.0143
MEAN |fbs - dss| 0.0018 0.0004 0.0004 

COMPARE Stx - ERROR, |fbs - dss|:
                A.(fbs - dss)   B.(fbs - dss)   C.(fbs - dss)
line_701_702   0.0046+0.0039j -0.0000+0.0018j  0.0000+0.0017j
line_702_705  -0.0000+0.0001j -0.0000+0.0001j  0.0000+0.0001j
line_702_713  -0.0000+0.0005j  0.0000+0.0005j  0.0000+0.0005j
line_702_703   0.0045+0.0032j -0.0000+0.0010j  0.0000+0.0010j
line_703_727  -0.0000+0.0001j -0.0000+0.0001j  0.0000+0.0001j
line_703_730   0.0044+0.0028j -0.0000+0.0007j  0.0000+0.0006j
line_704_714  -0.0000+0.0000j -0.0000+0.0001j  0.0000+0.0000j
line_704_720  -0.0000+0.0003j  0.0000+0.0003j  0.0000+0.0003j
line_705_742  -0.0000+0.0000j -0.0000+0.0000j  0.0000+0.0000j
line_705_712  -0.0000+0.0000j  0.0000+0.0000j  0.0000+0.0000j
line_706_725   0.0000+0.0000j -0.0000+0.0000j  0.0000+0.0000j
line_707_724   0.0000+0.0001j -0.0000+0.0001j  0.0000+0.0001j
line_707_722  -0.0000+0.0000j -0.0000+0.0000j  0.0000+0.0000j
line_708_733   0.0043+0.0025j -0.0000+0.0005j  0.0000+0.0004j
line_708_732  -0.0000+0.0000j  0.0000+0.0000j  0.0000+0.0000j
line_709_731   0.0000+0.0001j -0.0000+0.0001j  0.0000+0.0001j
line_709_708   0.0043+0.0026j -0.0000+0.0005j  0.0000+0.0005j
line_710_735   0.0004+0.0002j  0.0000+0.0000j  0.0000+0.0000j
line_710_736   0.0000+0.0001j  0.0000+0.0001j  0.0000+0.0001j
line_711_741   0.0004+0.0003j -0.0000+0.0000j  0.0000+0.0000j
line_711_740   0.0009+0.0004j  0.0000+0.0000j  0.0000+0.0000j
line_713_704  -0.0000+0.0004j  0.0000+0.0004j  0.0000+0.0004j
line_714_718  -0.0000+0.0000j -0.0000+0.0000j -0.0000+0.0000j
line_720_707  -0.0000+0.0001j -0.0000+0.0001j  0.0000+0.0001j
line_720_706  -0.0000+0.0001j -0.0000+0.0001j  0.0000+0.0001j
line_727_744  -0.0000+0.0001j -0.0000+0.0001j  0.0000+0.0001j
line_730_709   0.0043+0.0027j -0.0000+0.0006j  0.0000+0.0006j
line_733_734   0.0042+0.0025j -0.0000+0.0004j  0.0000+0.0004j
line_734_737   0.0036+0.0020j -0.0000+0.0002j  0.0000+0.0002j
line_734_710   0.0004+0.0004j  0.0000+0.0002j  0.0000+0.0002j
line_737_738   0.0025+0.0014j -0.0000+0.0001j  0.0000+0.0001j
line_738_711   0.0013+0.0007j -0.0000+0.0001j  0.0000+0.0001j
line_744_728  -0.0000+0.0000j -0.0000+0.0000j  0.0000+0.0000j
line_744_729  -0.0000+0.0000j -0.0000+0.0000j -0.0000+0.0000j
line_799r_701  0.0047+0.0045j -0.0000+0.0022j  0.0000+0.0021j
line_sbs_799   0.0047+0.0045j -0.0000+0.0022j  0.0000+0.0021j
line_799_799r  0.0047+0.0045j -0.0000+0.0022j  0.0000+0.0021j
line_709_775   0.0000-0.0000j  0.0000+0.0000j  0.0000+0.0000j 

COMPARE Stx - FBS RESULTS
                           A              B              C
line_701_702  0.6748+0.3295j 0.5469+0.2708j 0.6244+0.3051j
line_702_705  0.0463+0.0219j 0.0464+0.0219j 0.0847+0.0398j
line_702_713  0.1459+0.0688j 0.1742+0.0848j 0.2184+0.1067j
line_702_703  0.4775+0.2343j 0.3240+0.1612j 0.3176+0.1544j
line_703_727  0.1043+0.0521j 0.0837+0.0419j 0.0626+0.0313j
line_703_730  0.3694+0.1793j 0.2391+0.1177j 0.2539+0.1216j
line_704_714  0.0507+0.0238j 0.0613+0.0289j 0.0104+0.0050j
line_704_720  0.0526+0.0249j 0.1122+0.0557j 0.1648+0.0812j
line_705_742  0.0040+0.0020j 0.0464+0.0219j 0.0423+0.0199j
line_705_712  0.0422+0.0199j 0.0000+0.0000j 0.0423+0.0199j
line_706_725  0.0000-0.0000j 0.0209+0.0104j 0.0208+0.0104j
line_707_724  0.0000-0.0000j 0.0209+0.0104j 0.0208+0.0104j
line_707_722  0.0104+0.0050j 0.0696+0.0348j 0.0798+0.0397j
line_708_733  0.3019+0.1467j 0.1958+0.0967j 0.1474+0.0710j
line_708_732  0.0208+0.0104j 0.0000+0.0000j 0.0208+0.0104j
line_709_731  0.0000-0.0000j 0.0423+0.0199j 0.0422+0.0199j
line_709_708  0.3239+0.1577j 0.1960+0.0970j 0.1684+0.0815j
line_710_735  0.0419+0.0197j 0.0000+0.0000j 0.0421+0.0198j
line_710_736  0.0000-0.0000j 0.0209+0.0104j 0.0208+0.0104j
line_711_741  0.0207+0.0103j 0.0000+0.0000j 0.0208+0.0104j
line_711_740  0.0419+0.0197j 0.0000+0.0000j 0.0422+0.0198j
line_713_704  0.1035+0.0488j 0.1739+0.0847j 0.1757+0.0865j
line_714_718  0.0423+0.0199j 0.0423+0.0199j 0.0000+0.0000j
line_720_707  0.0104+0.0050j 0.0910+0.0452j 0.1011+0.0504j
line_720_706  0.0000-0.0000j 0.0209+0.0104j 0.0208+0.0104j
line_727_744  0.0834+0.0417j 0.0836+0.0418j 0.0417+0.0209j
line_730_709  0.3246+0.1580j 0.2385+0.1171j 0.2108+0.1014j
line_733_734  0.2589+0.1264j 0.1533+0.0765j 0.1473+0.0710j
line_734_737  0.1949+0.0956j 0.1322+0.0658j 0.0631+0.0302j
line_734_710  0.0420+0.0198j 0.0209+0.0104j 0.0631+0.0303j
line_737_738  0.1249+0.0608j 0.0625+0.0308j 0.0631+0.0302j
line_738_711  0.0626+0.0301j 0.0000+0.0000j 0.0630+0.0302j
line_744_728  0.0416+0.0208j 0.0418+0.0209j 0.0417+0.0209j
line_744_729  0.0208+0.0104j 0.0209+0.0104j 0.0000+0.0000j
line_799r_701 0.9318+0.4621j 0.6915+0.3472j 0.8789+0.4381j
line_sbs_799  0.9321+0.4621j 0.6916+0.3472j 0.8791+0.4381j
line_799_799r 0.9320+0.4621j 0.6915+0.3472j 0.8790+0.4381j
line_709_775  0.0000-0.0000j 0.0000+0.0000j 0.0000+0.0000j 

COMPARE Stx - DSS RESULTS
                            A               B              C
line_701_702   0.6703+0.3255j  0.5469+0.2690j 0.6244+0.3034j
line_702_705   0.0463+0.0218j  0.0464+0.0218j 0.0847+0.0398j
line_702_713   0.1459+0.0683j  0.1742+0.0843j 0.2184+0.1063j
line_702_703   0.4731+0.2312j  0.3240+0.1602j 0.3176+0.1534j
line_703_727   0.1043+0.0520j  0.0837+0.0418j 0.0626+0.0312j
line_703_730   0.3650+0.1765j  0.2392+0.1170j 0.2539+0.1210j
line_704_714   0.0507+0.0238j  0.0613+0.0288j 0.0104+0.0049j
line_704_720   0.0526+0.0246j  0.1122+0.0554j 0.1648+0.0809j
line_705_742   0.0040+0.0020j  0.0464+0.0219j 0.0423+0.0199j
line_705_712   0.0423+0.0199j -0.0000-0.0000j 0.0423+0.0199j
line_706_725  -0.0000-0.0000j  0.0209+0.0104j 0.0208+0.0104j
line_707_724  -0.0000-0.0001j  0.0209+0.0104j 0.0208+0.0104j
line_707_722   0.0104+0.0050j  0.0696+0.0348j 0.0798+0.0397j
line_708_733   0.2977+0.1442j  0.1958+0.0962j 0.1474+0.0706j
line_708_732   0.0208+0.0104j -0.0000-0.0000j 0.0208+0.0104j
line_709_731  -0.0000-0.0001j  0.0423+0.0198j 0.0422+0.0198j
line_709_708   0.3196+0.1551j  0.1960+0.0964j 0.1684+0.0810j
line_710_735   0.0415+0.0195j -0.0000-0.0000j 0.0421+0.0198j
line_710_736  -0.0000-0.0001j  0.0209+0.0103j 0.0208+0.0103j
line_711_741   0.0203+0.0101j  0.0000-0.0000j 0.0208+0.0104j
line_711_740   0.0410+0.0193j -0.0000-0.0000j 0.0422+0.0198j
line_713_704   0.1035+0.0484j  0.1739+0.0843j 0.1757+0.0861j
line_714_718   0.0423+0.0198j  0.0423+0.0199j 0.0000-0.0000j
line_720_707   0.0104+0.0048j  0.0910+0.0451j 0.1011+0.0502j
line_720_706   0.0000-0.0001j  0.0209+0.0104j 0.0208+0.0103j
line_727_744   0.0834+0.0416j  0.0836+0.0418j 0.0417+0.0208j
line_730_709   0.3203+0.1553j  0.2385+0.1165j 0.2108+0.1009j
line_733_734   0.2547+0.1240j  0.1533+0.0761j 0.1473+0.0706j
line_734_737   0.1912+0.0937j  0.1322+0.0656j 0.0631+0.0300j
line_734_710   0.0416+0.0194j  0.0209+0.0103j 0.0631+0.0301j
line_737_738   0.1224+0.0594j  0.0625+0.0307j 0.0631+0.0301j
line_738_711   0.0613+0.0294j  0.0000-0.0001j 0.0630+0.0301j
line_744_728   0.0417+0.0208j  0.0418+0.0209j 0.0417+0.0208j
line_744_729   0.0208+0.0104j  0.0209+0.0104j 0.0000-0.0000j
line_799r_701  0.9271+0.4576j  0.6915+0.3450j 0.8788+0.4360j
line_sbs_799   0.9274+0.4576j  0.6916+0.3450j 0.8791+0.4360j
line_799_799r  0.9272+0.4576j  0.6916+0.3450j 0.8790+0.4360j
line_709_775   0.0000+0.0000j  0.0000+0.0000j 0.0000+0.0000j 

~~~~~~~~~~~~~~~~~~~~~~~~~~~~~~~~~~~~~~~~~~~~~~~~~~~~~~~~~~~~~~~~~~~~~~~~~~~~~~~~~~~~~~~~~~~~~~~~~~~~ 

COMPARE Srx - SUMMARY STATS
                      A      B      C
MAX |fbs - dss|  0.0065 0.0022 0.0021
SUM |fbs - dss|  0.0671 0.0128 0.0122
MEAN |fbs - dss| 0.0018 0.0003 0.0003 

COMPARE Srx - ERROR, |fbs - dss|:
                A.(fbs - dss)   B.(fbs - dss)   C.(fbs - dss)
line_701_702   0.0045+0.0037j -0.0000+0.0016j  0.0000+0.0015j
line_702_705  -0.0000+0.0000j -0.0000+0.0000j  0.0000+0.0000j
line_702_713  -0.0000+0.0004j  0.0000+0.0004j  0.0000+0.0004j
line_702_703   0.0044+0.0029j -0.0000+0.0008j  0.0000+0.0007j
line_703_727  -0.0000+0.0001j -0.0000+0.0001j  0.0000+0.0001j
line_703_730   0.0043+0.0027j -0.0000+0.0006j  0.0000+0.0006j
line_704_714  -0.0000+0.0000j -0.0000+0.0000j  0.0000+0.0000j
line_704_720  -0.0000+0.0002j -0.0000+0.0002j  0.0000+0.0002j
line_705_742  -0.0000-0.0000j -0.0000-0.0000j  0.0000+0.0000j
line_705_712  -0.0000-0.0000j -0.0000+0.0000j  0.0000+0.0000j
line_706_725  -0.0000+0.0000j -0.0000-0.0000j  0.0000+0.0000j
line_707_724   0.0000-0.0000j -0.0000-0.0000j  0.0000+0.0000j
line_707_722  -0.0000-0.0000j -0.0000-0.0000j  0.0000+0.0000j
line_708_733   0.0042+0.0025j -0.0000+0.0004j  0.0000+0.0004j
line_708_732  -0.0000-0.0000j -0.0000+0.0000j  0.0000+0.0000j
line_709_731  -0.0000+0.0000j -0.0000-0.0000j  0.0000+0.0000j
line_709_708   0.0043+0.0025j -0.0000+0.0005j  0.0000+0.0005j
line_710_735   0.0004+0.0002j  0.0000-0.0000j  0.0000+0.0000j
line_710_736  -0.0000-0.0000j  0.0000+0.0000j  0.0000+0.0000j
line_711_741   0.0004+0.0002j -0.0000-0.0000j  0.0000+0.0000j
line_711_740   0.0009+0.0004j  0.0000-0.0000j  0.0000+0.0000j
line_713_704  -0.0000+0.0004j -0.0000+0.0004j  0.0000+0.0004j
line_714_718  -0.0000-0.0000j -0.0000-0.0000j  0.0000-0.0000j
line_720_707  -0.0000+0.0001j -0.0000+0.0001j  0.0000+0.0001j
line_720_706   0.0000+0.0000j -0.0000+0.0000j  0.0000+0.0000j
line_727_744  -0.0000+0.0000j -0.0000+0.0000j  0.0000+0.0000j
line_730_709   0.0043+0.0027j -0.0000+0.0006j  0.0000+0.0006j
line_733_734   0.0042+0.0024j -0.0000+0.0004j  0.0000+0.0004j
line_734_737   0.0036+0.0019j  0.0000+0.0001j  0.0000+0.0001j
line_734_710   0.0004+0.0003j  0.0000+0.0001j  0.0000+0.0001j
line_737_738   0.0025+0.0013j  0.0000+0.0001j  0.0000+0.0001j
line_738_711   0.0013+0.0007j -0.0000+0.0001j  0.0000+0.0001j
line_744_728  -0.0000-0.0000j -0.0000-0.0000j  0.0000+0.0000j
line_744_729  -0.0000-0.0000j -0.0000-0.0000j -0.0000+0.0000j
line_799r_701  0.0046+0.0039j -0.0000+0.0018j  0.0000+0.0017j
line_sbs_799   0.0047+0.0045j -0.0000+0.0022j  0.0000+0.0021j
line_799_799r  0.0047+0.0045j -0.0000+0.0022j  0.0000+0.0021j
line_709_775   0.0000+0.0000j  0.0000+0.0000j  0.0000+0.0000j 

COMPARE Srx - FBS RESULTS
                           A              B              C
line_701_702  0.6696+0.3250j 0.5446+0.2679j 0.6208+0.3010j
line_702_705  0.0462+0.0219j 0.0464+0.0219j 0.0845+0.0398j
line_702_713  0.1457+0.0686j 0.1739+0.0847j 0.2179+0.1064j
line_702_703  0.4737+0.2314j 0.3228+0.1595j 0.3166+0.1529j
line_703_727  0.1042+0.0521j 0.0836+0.0418j 0.0626+0.0313j
line_703_730  0.3667+0.1778j 0.2385+0.1171j 0.2530+0.1213j
line_704_714  0.0507+0.0238j 0.0612+0.0289j 0.0104+0.0050j
line_704_720  0.0526+0.0248j 0.1119+0.0557j 0.1642+0.0807j
line_705_742  0.0040+0.0020j 0.0463+0.0219j 0.0422+0.0199j
line_705_712  0.0422+0.0199j 0.0000+0.0000j 0.0422+0.0199j
line_706_725  0.0000-0.0000j 0.0209+0.0104j 0.0208+0.0104j
line_707_724  0.0000-0.0000j 0.0209+0.0104j 0.0208+0.0104j
line_707_722  0.0104+0.0050j 0.0695+0.0348j 0.0798+0.0396j
line_708_733  0.3009+0.1462j 0.1955+0.0964j 0.1473+0.0710j
line_708_732  0.0208+0.0104j 0.0000+0.0000j 0.0208+0.0104j
line_709_731  0.0000-0.0000j 0.0422+0.0199j 0.0422+0.0198j
line_709_708  0.3227+0.1571j 0.1958+0.0967j 0.1683+0.0814j
line_710_735  0.0419+0.0197j 0.0000+0.0000j 0.0421+0.0198j
line_710_736  0.0000-0.0000j 0.0208+0.0104j 0.0208+0.0104j
line_711_741  0.0207+0.0103j 0.0000+0.0000j 0.0208+0.0104j
line_711_740  0.0419+0.0197j 0.0000+0.0000j 0.0421+0.0198j
line_713_704  0.1034+0.0487j 0.1734+0.0846j 0.1753+0.0861j
line_714_718  0.0422+0.0199j 0.0423+0.0199j 0.0000+0.0000j
line_720_707  0.0104+0.0050j 0.0905+0.0452j 0.1006+0.0501j
line_720_706  0.0000-0.0000j 0.0209+0.0104j 0.0208+0.0104j
line_727_744  0.0833+0.0416j 0.0836+0.0418j 0.0417+0.0209j
line_730_709  0.3239+0.1577j 0.2383+0.1169j 0.2106+0.1014j
line_733_734  0.2576+0.1258j 0.1531+0.0763j 0.1470+0.0709j
line_734_737  0.1939+0.0953j 0.1320+0.0655j 0.0631+0.0302j
line_734_710  0.0419+0.0197j 0.0209+0.0104j 0.0630+0.0303j
line_737_738  0.1247+0.0607j 0.0625+0.0308j 0.0630+0.0302j
line_738_711  0.0626+0.0301j 0.0000+0.0000j 0.0630+0.0302j
line_744_728  0.0416+0.0208j 0.0418+0.0209j 0.0417+0.0209j
line_744_729  0.0208+0.0104j 0.0209+0.0104j 0.0000+0.0000j
line_799r_701 0.9189+0.4515j 0.6866+0.3406j 0.8685+0.4272j
line_sbs_799  0.9320+0.4621j 0.6915+0.3472j 0.8790+0.4381j
line_799_799r 0.9318+0.4621j 0.6915+0.3472j 0.8789+0.4381j
line_709_775  0.0000-0.0000j 0.0000+0.0000j 0.0000+0.0000j 

COMPARE Srx - DSS RESULTS
                            A               B               C
line_701_702   0.6652+0.3213j  0.5446+0.2663j  0.6208+0.2995j
line_702_705   0.0462+0.0218j  0.0464+0.0219j  0.0845+0.0397j
line_702_713   0.1457+0.0682j  0.1739+0.0843j  0.2179+0.1060j
line_702_703   0.4693+0.2285j  0.3229+0.1588j  0.3166+0.1522j
line_703_727   0.1042+0.0520j  0.0836+0.0418j  0.0626+0.0312j
line_703_730   0.3624+0.1751j  0.2385+0.1165j  0.2530+0.1207j
line_704_714   0.0507+0.0238j  0.0612+0.0288j  0.0104+0.0049j
line_704_720   0.0526+0.0246j  0.1119+0.0554j  0.1642+0.0804j
line_705_742   0.0040+0.0020j  0.0463+0.0219j  0.0422+0.0199j
line_705_712   0.0422+0.0199j  0.0000-0.0000j  0.0422+0.0199j
line_706_725   0.0000-0.0000j  0.0209+0.0104j  0.0208+0.0104j
line_707_724  -0.0000+0.0000j  0.0209+0.0104j  0.0208+0.0104j
line_707_722   0.0104+0.0050j  0.0695+0.0348j  0.0798+0.0396j
line_708_733   0.2967+0.1437j  0.1956+0.0960j  0.1473+0.0706j
line_708_732   0.0208+0.0104j  0.0000-0.0000j  0.0208+0.0104j
line_709_731   0.0000-0.0000j  0.0422+0.0199j  0.0422+0.0198j
line_709_708   0.3184+0.1545j  0.1958+0.0962j  0.1682+0.0810j
line_710_735   0.0415+0.0195j -0.0000+0.0000j  0.0421+0.0198j
line_710_736   0.0000+0.0000j  0.0208+0.0104j  0.0208+0.0104j
line_711_741   0.0202+0.0101j  0.0000+0.0000j  0.0208+0.0104j
line_711_740   0.0410+0.0193j -0.0000+0.0000j  0.0421+0.0198j
line_713_704   0.1034+0.0483j  0.1734+0.0842j  0.1753+0.0858j
line_714_718   0.0422+0.0199j  0.0423+0.0199j -0.0000+0.0000j
line_720_707   0.0104+0.0049j  0.0905+0.0451j  0.1006+0.0500j
line_720_706  -0.0000-0.0000j  0.0209+0.0104j  0.0208+0.0104j
line_727_744   0.0833+0.0416j  0.0836+0.0417j  0.0417+0.0208j
line_730_709   0.3196+0.1550j  0.2383+0.1163j  0.2106+0.1008j
line_733_734   0.2534+0.1234j  0.1531+0.0759j  0.1470+0.0706j
line_734_737   0.1903+0.0934j  0.1320+0.0654j  0.0631+0.0301j
line_734_710   0.0415+0.0194j  0.0209+0.0103j  0.0630+0.0301j
line_737_738   0.1222+0.0593j  0.0625+0.0307j  0.0630+0.0301j
line_738_711   0.0612+0.0294j  0.0000-0.0001j  0.0630+0.0302j
line_744_728   0.0416+0.0208j  0.0418+0.0209j  0.0417+0.0209j
line_744_729   0.0208+0.0104j  0.0209+0.0104j  0.0000-0.0000j
line_799r_701  0.9143+0.4475j  0.6866+0.3388j  0.8685+0.4255j
line_sbs_799   0.9272+0.4576j  0.6916+0.3450j  0.8790+0.4360j
line_799_799r  0.9271+0.4576j  0.6915+0.3450j  0.8788+0.4360j
line_709_775  -0.0000-0.0000j -0.0000-0.0000j -0.0000-0.0000j 

~~~~~~~~~~~~~~~~~~~~~~~~~~~~~~~~~~~~~~~~~~~~~~~~~~~~~~~~~~~~~~~~~~~~~~~~~~~~~~~~~~~~~~~~~~~~~~~~~~~~ 

TOTAL NOMINAL NODE POWERS (kW/kVAR) - SUMMARY STATS
                       A       B       C
MAX |fbs - dss|   8.9207  4.7865  7.9534
SUM |fbs - dss|  71.6573 33.1275 50.2387
MEAN |fbs - dss|  1.8374  0.8494  1.2882 

TOTAL NOMINAL NODE POWERS (kW/kVAR) - ERROR, |fbs - dss|:
            A.(fbs - dss)   B.(fbs - dss)   C.(fbs - dss)
sourcebus  0.0000+0.0000j  0.0000+0.0000j  0.0000+0.0000j
701       -7.7349-3.8675j -2.6872-1.3436j -7.1138-3.5569j
702        0.0000+0.0000j  0.0000+0.0000j  0.0000+0.0000j
705        0.0000+0.0000j  0.0000+0.0000j  0.0000+0.0000j
713       -2.1684-1.0204j  0.0000+0.0000j -2.0279-0.9543j
703        0.0000+0.0000j  0.0000+0.0000j  0.0000+0.0000j
727       -1.4280-0.7140j  0.0000+0.0000j -1.1083-0.5542j
730       -3.3709-1.5863j  0.0000+0.0000j -2.4782-1.1662j
704        0.0000+0.0000j  0.0000+0.0000j  0.0000+0.0000j
714       -0.4538-0.2136j -0.7293-0.3455j -0.5557-0.2646j
720       -2.2779-1.0720j  0.0000+0.0000j -2.6204-1.2331j
742       -0.1995-0.0997j -1.5293-0.7235j -2.0387-0.9594j
712       -2.1766-1.0243j  0.0000+0.0000j -2.0263-0.9536j
706        0.0000+0.0000j  0.0000+0.0000j  0.0000+0.0000j
725        0.0000+0.0000j -0.9188-0.4594j -1.3254-0.6627j
707        0.0000+0.0000j  0.0000+0.0000j  0.0000+0.0000j
724        0.0000+0.0000j -1.1039-0.5519j -1.5359-0.7679j
722       -0.5474-0.2606j -3.6209-1.8105j -5.8346-2.8992j
708        0.0000+0.0000j  0.0000+0.0000j  0.0000+0.0000j
733       -4.0948-1.9270j -2.2616-1.0643j  0.0000+0.0000j
732       -1.9071-0.9536j  0.0000+0.0000j -1.3118-0.6559j
709        0.0000+0.0000j  0.0000+0.0000j  0.0000+0.0000j
731        0.0000+0.0000j -2.0906-0.9838j -2.6199-1.2329j
710        0.0000+0.0000j  0.0000+0.0000j  0.0000+0.0000j
735       -4.6196-2.1739j  0.0000+0.0000j -2.9979-1.4108j
736        0.0000+0.0000j -1.2613-0.6306j -1.5219-0.7609j
711        0.0000+0.0000j  0.0000+0.0000j  0.0000+0.0000j
741       -2.5130-1.2565j  0.0000+0.0000j -1.4532-0.7266j
740       -5.0994-2.3997j  0.0000+0.0000j -2.9564-1.3912j
718       -2.3685-1.1146j -1.7283-0.8133j  0.0000+0.0000j
744       -1.4572-0.7286j -0.8924-0.4462j  0.0000+0.0000j
734       -2.2207-1.1104j  0.0000+0.0000j -1.3898-0.6949j
737       -7.9789-3.9895j -4.2812-2.1406j  0.0000+0.0000j
738       -7.3922-3.6374j -3.9098-1.9239j  0.0000+0.0000j
728       -2.9472-1.4736j -1.8161-0.9080j -2.2583-1.1291j
729       -1.4703-0.7351j -0.9053-0.4526j  0.0000+0.0000j
799r       0.0000+0.0000j  0.0000+0.0000j  0.0000+0.0000j
799        0.0000+0.0000j  0.0000+0.0000j  0.0000+0.0000j
775        0.0000+0.0000j  0.0000+0.0000j  0.0000+0.0000j 

TOTAL NOMINAL NODE POWERS (kW/kVAR) - FBS RESULTS
                           A                 B                  C
sourcebus     0.0000+0.0000j    0.0000+0.0000j     0.0000+0.0000j
701       237.2651+118.6325j 137.3128+68.6564j 237.8862+118.9431j
702           0.0000+0.0000j    0.0000+0.0000j     0.0000+0.0000j
705           0.0000+0.0000j    0.0000+0.0000j     0.0000+0.0000j
713         40.3316+18.9796j    0.0000+0.0000j   40.4721+19.0457j
703           0.0000+0.0000j    0.0000+0.0000j     0.0000+0.0000j
727          19.5720+9.7860j    0.0000+0.0000j    19.8917+9.9458j
730         39.1291+18.4137j    0.0000+0.0000j   40.0218+18.8338j
704           0.0000+0.0000j    0.0000+0.0000j     0.0000+0.0000j
714           8.0462+3.7864j   18.2707+8.6545j     9.9443+4.7354j
720         40.2221+18.9280j    0.0000+0.0000j   39.8796+18.7669j
742           3.8005+1.9003j  44.9707+21.2765j   40.4613+19.0406j
712         40.3234+18.9757j    0.0000+0.0000j   40.4737+19.0464j
706           0.0000+0.0000j    0.0000+0.0000j     0.0000+0.0000j
725           0.0000+0.0000j  20.0812+10.0406j    19.6746+9.8373j
707           0.0000+0.0000j    0.0000+0.0000j     0.0000+0.0000j
724           0.0000+0.0000j   19.8961+9.9481j    19.4641+9.7321j
722           9.9526+4.7394j  66.3791+33.1895j   74.6654+37.1008j
708           0.0000+0.0000j    0.0000+0.0000j     0.0000+0.0000j
733         38.4052+18.0730j  40.2384+18.9357j     0.0000+0.0000j
732          19.0929+9.5464j    0.0000+0.0000j    19.6882+9.8441j
709           0.0000+0.0000j    0.0000+0.0000j     0.0000+0.0000j
731           0.0000+0.0000j  40.4094+19.0162j   39.8801+18.7671j
710           0.0000+0.0000j    0.0000+0.0000j     0.0000+0.0000j
735         37.8804+17.8261j    0.0000+0.0000j   39.5021+18.5892j
736           0.0000+0.0000j   19.7387+9.8694j    19.4781+9.7391j
711           0.0000+0.0000j    0.0000+0.0000j     0.0000+0.0000j
741          18.4870+9.2435j    0.0000+0.0000j    19.5468+9.7734j
740         37.4006+17.6003j    0.0000+0.0000j   39.5436+18.6088j
718         40.1315+18.8854j  40.7717+19.1867j     0.0000+0.0000j
744          19.5428+9.7714j  20.1076+10.0538j     0.0000+0.0000j
734          18.7793+9.3896j    0.0000+0.0000j    19.6102+9.8051j
737         62.0211+31.0105j  65.7188+32.8594j     0.0000+0.0000j
738         55.6078+27.3626j  59.0902+29.0761j     0.0000+0.0000j
728         39.0528+19.5264j  40.1839+20.0920j   39.7417+19.8709j
729          19.5297+9.7649j  20.0947+10.0474j     0.0000+0.0000j
799r          0.0000+0.0000j    0.0000+0.0000j     0.0000+0.0000j
799           0.0000+0.0000j    0.0000+0.0000j     0.0000+0.0000j
775           0.0000+0.0000j    0.0000+0.0000j     0.0000+0.0000j 

TOTAL NOMINAL NODE POWERS (kW/kVAR) - DSS RESULTS
                           A                 B                  C
sourcebus     0.0000+0.0000j    0.0000+0.0000j     0.0000+0.0000j
701       245.0000+122.5000j 140.0000+70.0000j 245.0000+122.5000j
702           0.0000+0.0000j    0.0000+0.0000j     0.0000+0.0000j
705           0.0000+0.0000j    0.0000+0.0000j     0.0000+0.0000j
713         42.5000+20.0000j    0.0000+0.0000j   42.5000+20.0000j
703           0.0000+0.0000j    0.0000+0.0000j     0.0000+0.0000j
727         21.0000+10.5000j    0.0000+0.0000j   21.0000+10.5000j
730         42.5000+20.0000j    0.0000+0.0000j   42.5000+20.0000j
704           0.0000+0.0000j    0.0000+0.0000j     0.0000+0.0000j
714           8.5000+4.0000j   19.0000+9.0000j    10.5000+5.0000j
720         42.5000+20.0000j    0.0000+0.0000j   42.5000+20.0000j
742           4.0000+2.0000j  46.5000+22.0000j   42.5000+20.0000j
712         42.5000+20.0000j    0.0000+0.0000j   42.5000+20.0000j
706           0.0000+0.0000j    0.0000+0.0000j     0.0000+0.0000j
725           0.0000+0.0000j  21.0000+10.5000j   21.0000+10.5000j
707           0.0000+0.0000j    0.0000+0.0000j     0.0000+0.0000j
724           0.0000+0.0000j  21.0000+10.5000j   21.0000+10.5000j
722          10.5000+5.0000j  70.0000+35.0000j   80.5000+40.0000j
708           0.0000+0.0000j    0.0000+0.0000j     0.0000+0.0000j
733         42.5000+20.0000j  42.5000+20.0000j     0.0000+0.0000j
732         21.0000+10.5000j    0.0000+0.0000j   21.0000+10.5000j
709           0.0000+0.0000j    0.0000+0.0000j     0.0000+0.0000j
731           0.0000+0.0000j  42.5000+20.0000j   42.5000+20.0000j
710           0.0000+0.0000j    0.0000+0.0000j     0.0000+0.0000j
735         42.5000+20.0000j    0.0000+0.0000j   42.5000+20.0000j
736           0.0000+0.0000j  21.0000+10.5000j   21.0000+10.5000j
711           0.0000+0.0000j    0.0000+0.0000j     0.0000+0.0000j
741         21.0000+10.5000j    0.0000+0.0000j   21.0000+10.5000j
740         42.5000+20.0000j    0.0000+0.0000j   42.5000+20.0000j
718         42.5000+20.0000j  42.5000+20.0000j     0.0000+0.0000j
744         21.0000+10.5000j  21.0000+10.5000j     0.0000+0.0000j
734         21.0000+10.5000j    0.0000+0.0000j   21.0000+10.5000j
737         70.0000+35.0000j  70.0000+35.0000j     0.0000+0.0000j
738         63.0000+31.0000j  63.0000+31.0000j     0.0000+0.0000j
728         42.0000+21.0000j  42.0000+21.0000j   42.0000+21.0000j
729         21.0000+10.5000j  21.0000+10.5000j     0.0000+0.0000j
799r          0.0000+0.0000j    0.0000+0.0000j     0.0000+0.0000j
799           0.0000+0.0000j    0.0000+0.0000j     0.0000+0.0000j
775           0.0000+0.0000j    0.0000+0.0000j     0.0000+0.0000j 

~~~~~~~~~~~~~~~~~~~~~~~~~~~~~~~~~~~~~~~~~~~~~~~~~~~~~~~~~~~~~~~~~~~~~~~~~~~~~~~~~~~~~~~~~~~~~~~~~~~~ 

Total node power comparison, from dss.CktElement.Powers()
TOTAL NODE POWERS (kW/kVAR) - SUMMARY STATS
                      A      B      C
MAX |fbs - dss|  1.2989 0.0008 1.2914
SUM |fbs - dss|  3.7232 0.0056 3.3247
MEAN |fbs - dss| 0.0955 0.0001 0.0852 

TOTAL NODE POWERS (kW/kVAR) - ERROR, |fbs - dss|:
            A.(fbs - dss)   B.(fbs - dss)   C.(fbs - dss)
sourcebus  0.0000+0.0000j  0.0000+0.0000j  0.0000+0.0000j
701       -0.0571-0.0284j -0.0007-0.0003j  0.0518+0.0260j
702        0.0000+0.0000j  0.0000+0.0000j  0.0000+0.0000j
705        0.0000+0.0000j  0.0000+0.0000j  0.0000+0.0000j
713       -0.0176-0.0082j  0.0000+0.0000j  0.0159+0.0075j
703        0.0000+0.0000j  0.0000+0.0000j  0.0000+0.0000j
727       -0.0401-0.0200j  0.0000+0.0000j  0.0388+0.0194j
730       -0.1120-0.0526j  0.0000+0.0000j  0.1084+0.0511j
704        0.0000+0.0000j  0.0000+0.0000j  0.0000+0.0000j
714       -0.0004-0.0002j -0.0002-0.0001j  0.0000+0.0000j
720        0.0431+0.0203j  0.0000+0.0000j -0.0449-0.0211j
742       -0.0002-0.0001j -0.0004-0.0002j  0.0001+0.0001j
712       -0.0188-0.0088j  0.0000+0.0000j  0.0171+0.0081j
706        0.0000+0.0000j  0.0000+0.0000j  0.0000+0.0000j
725        0.0000+0.0000j -0.0002-0.0001j  0.0000+0.0000j
707        0.0000+0.0000j  0.0000+0.0000j  0.0000+0.0000j
724        0.0000+0.0000j -0.0002-0.0001j  0.0000+0.0000j
722        0.0269+0.0128j -0.0007-0.0004j -0.0272-0.0129j
708        0.0000+0.0000j  0.0000+0.0000j  0.0000+0.0000j
733       -0.0056-0.0026j -0.0001-0.0000j  0.0000+0.0000j
732       -0.0747-0.0373j  0.0000+0.0000j  0.0726+0.0363j
709        0.0000+0.0000j  0.0000+0.0000j  0.0000+0.0000j
731        0.0000+0.0000j -0.0003-0.0001j  0.0005+0.0003j
710        0.0000+0.0000j  0.0000+0.0000j  0.0000+0.0000j
735       -0.2037-0.0958j  0.0000+0.0000j  0.6276+0.2954j
736        0.0000+0.0000j  0.0001+0.0000j  0.0005+0.0003j
711        0.0000+0.0000j  0.0000+0.0000j  0.0000+0.0000j
741       -0.1332-0.0666j  0.0000+0.0000j  0.5708+0.2855j
740       -0.2693-0.1267j  0.0000+0.0000j  1.1685+0.5499j
718       -0.0018-0.0008j -0.0004-0.0002j  0.0000+0.0000j
744       -0.0014-0.0007j -0.0002-0.0001j  0.0000+0.0000j
734       -0.1044-0.0521j  0.0000+0.0000j  0.2515+0.1258j
737        1.0622+0.5312j  0.0005+0.0002j  0.0000+0.0000j
738        1.1654+0.5736j  0.0005+0.0002j  0.0000+0.0000j
728       -0.0028-0.0013j -0.0005-0.0002j  0.0002+0.0002j
729       -0.0014-0.0007j -0.0002-0.0001j  0.0000+0.0000j
799r       0.0000+0.0000j  0.0000+0.0000j  0.0000+0.0000j
799        0.0000+0.0000j  0.0000+0.0000j  0.0000+0.0000j
775        0.0000+0.0000j  0.0000+0.0000j  0.0000+0.0000j 

TOTAL NODE POWERS (kW/kVAR) - FBS RESULTS
                           A                 B                  C
sourcebus     0.0000+0.0000j    0.0000+0.0000j     0.0000+0.0000j
701       244.0316+122.0158j 139.6638+69.8319j 244.1095+122.0547j
702           0.0000+0.0000j    0.0000+0.0000j     0.0000+0.0000j
705           0.0000+0.0000j    0.0000+0.0000j     0.0000+0.0000j
713         42.2282+19.8721j    0.0000+0.0000j   42.2459+19.8804j
703           0.0000+0.0000j    0.0000+0.0000j     0.0000+0.0000j
727         20.8209+10.4104j    0.0000+0.0000j   20.8611+10.4305j
730         42.0769+19.8009j    0.0000+0.0000j   42.1893+19.8538j
704           0.0000+0.0000j    0.0000+0.0000j     0.0000+0.0000j
714           8.4431+3.9732j   18.9087+8.9567j    10.4304+4.9668j
720         42.2145+19.8656j    0.0000+0.0000j   42.1714+19.8454j
742           3.9750+1.9875j  46.3085+21.9094j   42.2445+19.8798j
712         42.2272+19.8716j    0.0000+0.0000j   42.2461+19.8805j
706           0.0000+0.0000j    0.0000+0.0000j     0.0000+0.0000j
725           0.0000+0.0000j  20.8849+10.4424j   20.8338+10.4169j
707           0.0000+0.0000j    0.0000+0.0000j     0.0000+0.0000j
724           0.0000+0.0000j  20.8616+10.4308j   20.8073+10.4036j
722          10.4314+4.9673j  69.5462+34.7731j   79.7679+39.6362j
708           0.0000+0.0000j    0.0000+0.0000j     0.0000+0.0000j
733         41.9856+19.7579j  42.2165+19.8666j     0.0000+0.0000j
732         20.7605+10.3802j    0.0000+0.0000j   20.8355+10.4177j
709           0.0000+0.0000j    0.0000+0.0000j     0.0000+0.0000j
731           0.0000+0.0000j  42.2380+19.8767j   42.1715+19.8454j
710           0.0000+0.0000j    0.0000+0.0000j     0.0000+0.0000j
735         41.9192+19.7267j    0.0000+0.0000j   42.1239+19.8230j
736           0.0000+0.0000j  20.8419+10.4209j   20.8091+10.4045j
711           0.0000+0.0000j    0.0000+0.0000j     0.0000+0.0000j
741         20.6839+10.3419j    0.0000+0.0000j   20.8177+10.4088j
740         41.8585+19.6981j    0.0000+0.0000j   42.1291+19.8255j
718         42.2031+19.8603j  42.2835+19.8981j     0.0000+0.0000j
744         20.8172+10.4086j  20.8882+10.4441j     0.0000+0.0000j
734         20.7209+10.3604j    0.0000+0.0000j   20.8257+10.4128j
737         68.9966+34.4983j  69.4632+34.7316j     0.0000+0.0000j
738         62.0702+30.5425j  62.5097+30.7587j     0.0000+0.0000j
728         41.6303+20.8151j  41.7725+20.8862j   41.7169+20.8585j
729         20.8155+10.4078j  20.8866+10.4433j     0.0000+0.0000j
799r          0.0000+0.0000j    0.0000+0.0000j     0.0000+0.0000j
799           0.0000+0.0000j    0.0000+0.0000j     0.0000+0.0000j
775           0.0000+0.0000j    0.0000+0.0000j     0.0000+0.0000j 

TOTAL NODE POWERS (kW/kVAR) - DSS RESULTS
                           A                 B                  C
sourcebus     0.0000+0.0000j    0.0000+0.0000j     0.0000+0.0000j
701       244.0887+122.0442j 139.6645+69.8322j 244.0577+122.0288j
702           0.0000+0.0000j    0.0000+0.0000j     0.0000+0.0000j
705           0.0000+0.0000j    0.0000+0.0000j     0.0000+0.0000j
713         42.2458+19.8804j    0.0000+0.0000j   42.2300+19.8729j
703           0.0000+0.0000j    0.0000+0.0000j     0.0000+0.0000j
727         20.8610+10.4305j    0.0000+0.0000j   20.8223+10.4111j
730         42.1889+19.8535j    0.0000+0.0000j   42.0809+19.8027j
704           0.0000+0.0000j    0.0000+0.0000j     0.0000+0.0000j
714           8.4435+3.9734j   18.9088+8.9568j    10.4303+4.9668j
720         42.1713+19.8453j    0.0000+0.0000j   42.2163+19.8665j
742           3.9752+1.9876j  46.3089+21.9096j   42.2444+19.8797j
712         42.2460+19.8804j    0.0000+0.0000j   42.2290+19.8724j
706           0.0000+0.0000j    0.0000+0.0000j     0.0000+0.0000j
725           0.0000+0.0000j  20.8851+10.4426j   20.8338+10.4169j
707           0.0000+0.0000j    0.0000+0.0000j     0.0000+0.0000j
724           0.0000+0.0000j  20.8618+10.4309j   20.8072+10.4036j
722          10.4045+4.9545j  69.5469+34.7735j   79.7952+39.6491j
708           0.0000+0.0000j    0.0000+0.0000j     0.0000+0.0000j
733         41.9911+19.7605j  42.2166+19.8666j     0.0000+0.0000j
732         20.8352+10.4176j    0.0000+0.0000j   20.7629+10.3814j
709           0.0000+0.0000j    0.0000+0.0000j     0.0000+0.0000j
731           0.0000+0.0000j  42.2383+19.8768j   42.1710+19.8451j
710           0.0000+0.0000j    0.0000+0.0000j     0.0000+0.0000j
735         42.1229+19.8225j    0.0000+0.0000j   41.4963+19.5276j
736           0.0000+0.0000j  20.8418+10.4209j   20.8086+10.4043j
711           0.0000+0.0000j    0.0000+0.0000j     0.0000+0.0000j
741         20.8171+10.4085j    0.0000+0.0000j   20.2468+10.1234j
740         42.1278+19.8248j    0.0000+0.0000j   40.9606+19.2755j
718         42.2049+19.8611j  42.2839+19.8983j     0.0000+0.0000j
744         20.8186+10.4093j  20.8885+10.4442j     0.0000+0.0000j
734         20.8252+10.4126j    0.0000+0.0000j   20.5741+10.2870j
737         67.9344+33.9671j  69.4627+34.7314j     0.0000+0.0000j
738         60.9048+29.9689j  62.5092+30.7585j     0.0000+0.0000j
728         41.6330+20.8165j  41.7730+20.8865j   41.7167+20.8583j
729         20.8169+10.4084j  20.8868+10.4434j     0.0000+0.0000j
799r          0.0000+0.0000j    0.0000+0.0000j     0.0000+0.0000j
799           0.0000+0.0000j    0.0000+0.0000j     0.0000+0.0000j
775           0.0000+0.0000j    0.0000+0.0000j     0.0000+0.0000j 

~~~~~~~~~~~~~~~~~~~~~~~~~~~~~~~~~~~~~~~~~~~~~~~~~~~~~~~~~~~~~~~~~~~~~~~~~~~~~~~~~~~~~~~~~~~~~~~~~~~~ 

Total node power comparison, from dss.CktElement.Powers()
TOTAL NODE POWERS(pu) - SUMMARY STATS
                      A      B      C
MAX |fbs - dss|  0.0000 0.0000 0.0000
SUM |fbs - dss|  0.0000 0.0000 0.0000
MEAN |fbs - dss| 0.0000 0.0000 0.0000 

TOTAL NODE POWERS(pu) - ERROR, |fbs - dss|:
            A.(fbs - dss)   B.(fbs - dss)   C.(fbs - dss)
sourcebus  0.0000+0.0000j  0.0000+0.0000j  0.0000+0.0000j
701       -0.0000-0.0000j -0.0000-0.0000j  0.0000+0.0000j
702        0.0000+0.0000j  0.0000+0.0000j  0.0000+0.0000j
705        0.0000+0.0000j  0.0000+0.0000j  0.0000+0.0000j
713       -0.0000-0.0000j  0.0000+0.0000j  0.0000+0.0000j
703        0.0000+0.0000j  0.0000+0.0000j  0.0000+0.0000j
727       -0.0000-0.0000j  0.0000+0.0000j  0.0000+0.0000j
730       -0.0000-0.0000j  0.0000+0.0000j  0.0000+0.0000j
704        0.0000+0.0000j  0.0000+0.0000j  0.0000+0.0000j
714       -0.0000-0.0000j -0.0000-0.0000j  0.0000+0.0000j
720        0.0000+0.0000j  0.0000+0.0000j -0.0000-0.0000j
742       -0.0000-0.0000j -0.0000-0.0000j  0.0000+0.0000j
712       -0.0000-0.0000j  0.0000+0.0000j  0.0000+0.0000j
706        0.0000+0.0000j  0.0000+0.0000j  0.0000+0.0000j
725        0.0000+0.0000j -0.0000-0.0000j  0.0000+0.0000j
707        0.0000+0.0000j  0.0000+0.0000j  0.0000+0.0000j
724        0.0000+0.0000j -0.0000-0.0000j  0.0000+0.0000j
722        0.0000+0.0000j -0.0000-0.0000j -0.0000-0.0000j
708        0.0000+0.0000j  0.0000+0.0000j  0.0000+0.0000j
733       -0.0000-0.0000j -0.0000-0.0000j  0.0000+0.0000j
732       -0.0000-0.0000j  0.0000+0.0000j  0.0000+0.0000j
709        0.0000+0.0000j  0.0000+0.0000j  0.0000+0.0000j
731        0.0000+0.0000j -0.0000-0.0000j  0.0000+0.0000j
710        0.0000+0.0000j  0.0000+0.0000j  0.0000+0.0000j
735       -0.0000-0.0000j  0.0000+0.0000j  0.0000+0.0000j
736        0.0000+0.0000j  0.0000+0.0000j  0.0000+0.0000j
711        0.0000+0.0000j  0.0000+0.0000j  0.0000+0.0000j
741       -0.0000-0.0000j  0.0000+0.0000j  0.0000+0.0000j
740       -0.0000-0.0000j  0.0000+0.0000j  0.0000+0.0000j
718       -0.0000-0.0000j -0.0000-0.0000j  0.0000+0.0000j
744       -0.0000-0.0000j -0.0000-0.0000j  0.0000+0.0000j
734       -0.0000-0.0000j  0.0000+0.0000j  0.0000+0.0000j
737        0.0000+0.0000j  0.0000+0.0000j  0.0000+0.0000j
738        0.0000+0.0000j  0.0000+0.0000j  0.0000+0.0000j
728       -0.0000-0.0000j -0.0000-0.0000j  0.0000+0.0000j
729       -0.0000-0.0000j -0.0000-0.0000j  0.0000+0.0000j
799r       0.0000+0.0000j  0.0000+0.0000j  0.0000+0.0000j
799        0.0000+0.0000j  0.0000+0.0000j  0.0000+0.0000j
775        0.0000+0.0000j  0.0000+0.0000j  0.0000+0.0000j 

TOTAL NODE POWERS(pu) - FBS RESULTS
                       A              B              C
sourcebus 0.0000+0.0000j 0.0000+0.0000j 0.0000+0.0000j
701       0.0002+0.0001j 0.0001+0.0001j 0.0002+0.0001j
702       0.0000+0.0000j 0.0000+0.0000j 0.0000+0.0000j
705       0.0000+0.0000j 0.0000+0.0000j 0.0000+0.0000j
713       0.0000+0.0000j 0.0000+0.0000j 0.0000+0.0000j
703       0.0000+0.0000j 0.0000+0.0000j 0.0000+0.0000j
727       0.0000+0.0000j 0.0000+0.0000j 0.0000+0.0000j
730       0.0000+0.0000j 0.0000+0.0000j 0.0000+0.0000j
704       0.0000+0.0000j 0.0000+0.0000j 0.0000+0.0000j
714       0.0000+0.0000j 0.0000+0.0000j 0.0000+0.0000j
720       0.0000+0.0000j 0.0000+0.0000j 0.0000+0.0000j
742       0.0000+0.0000j 0.0000+0.0000j 0.0000+0.0000j
712       0.0000+0.0000j 0.0000+0.0000j 0.0000+0.0000j
706       0.0000+0.0000j 0.0000+0.0000j 0.0000+0.0000j
725       0.0000+0.0000j 0.0000+0.0000j 0.0000+0.0000j
707       0.0000+0.0000j 0.0000+0.0000j 0.0000+0.0000j
724       0.0000+0.0000j 0.0000+0.0000j 0.0000+0.0000j
722       0.0000+0.0000j 0.0001+0.0000j 0.0001+0.0000j
708       0.0000+0.0000j 0.0000+0.0000j 0.0000+0.0000j
733       0.0000+0.0000j 0.0000+0.0000j 0.0000+0.0000j
732       0.0000+0.0000j 0.0000+0.0000j 0.0000+0.0000j
709       0.0000+0.0000j 0.0000+0.0000j 0.0000+0.0000j
731       0.0000+0.0000j 0.0000+0.0000j 0.0000+0.0000j
710       0.0000+0.0000j 0.0000+0.0000j 0.0000+0.0000j
735       0.0000+0.0000j 0.0000+0.0000j 0.0000+0.0000j
736       0.0000+0.0000j 0.0000+0.0000j 0.0000+0.0000j
711       0.0000+0.0000j 0.0000+0.0000j 0.0000+0.0000j
741       0.0000+0.0000j 0.0000+0.0000j 0.0000+0.0000j
740       0.0000+0.0000j 0.0000+0.0000j 0.0000+0.0000j
718       0.0000+0.0000j 0.0000+0.0000j 0.0000+0.0000j
744       0.0000+0.0000j 0.0000+0.0000j 0.0000+0.0000j
734       0.0000+0.0000j 0.0000+0.0000j 0.0000+0.0000j
737       0.0001+0.0000j 0.0001+0.0000j 0.0000+0.0000j
738       0.0001+0.0000j 0.0001+0.0000j 0.0000+0.0000j
728       0.0000+0.0000j 0.0000+0.0000j 0.0000+0.0000j
729       0.0000+0.0000j 0.0000+0.0000j 0.0000+0.0000j
799r      0.0000+0.0000j 0.0000+0.0000j 0.0000+0.0000j
799       0.0000+0.0000j 0.0000+0.0000j 0.0000+0.0000j
775       0.0000+0.0000j 0.0000+0.0000j 0.0000+0.0000j 

TOTAL NODE POWERS(pu) - DSS RESULTS
                       A              B              C
sourcebus 0.0000+0.0000j 0.0000+0.0000j 0.0000+0.0000j
701       0.0002+0.0001j 0.0001+0.0001j 0.0002+0.0001j
702       0.0000+0.0000j 0.0000+0.0000j 0.0000+0.0000j
705       0.0000+0.0000j 0.0000+0.0000j 0.0000+0.0000j
713       0.0000+0.0000j 0.0000+0.0000j 0.0000+0.0000j
703       0.0000+0.0000j 0.0000+0.0000j 0.0000+0.0000j
727       0.0000+0.0000j 0.0000+0.0000j 0.0000+0.0000j
730       0.0000+0.0000j 0.0000+0.0000j 0.0000+0.0000j
704       0.0000+0.0000j 0.0000+0.0000j 0.0000+0.0000j
714       0.0000+0.0000j 0.0000+0.0000j 0.0000+0.0000j
720       0.0000+0.0000j 0.0000+0.0000j 0.0000+0.0000j
742       0.0000+0.0000j 0.0000+0.0000j 0.0000+0.0000j
712       0.0000+0.0000j 0.0000+0.0000j 0.0000+0.0000j
706       0.0000+0.0000j 0.0000+0.0000j 0.0000+0.0000j
725       0.0000+0.0000j 0.0000+0.0000j 0.0000+0.0000j
707       0.0000+0.0000j 0.0000+0.0000j 0.0000+0.0000j
724       0.0000+0.0000j 0.0000+0.0000j 0.0000+0.0000j
722       0.0000+0.0000j 0.0001+0.0000j 0.0001+0.0000j
708       0.0000+0.0000j 0.0000+0.0000j 0.0000+0.0000j
733       0.0000+0.0000j 0.0000+0.0000j 0.0000+0.0000j
732       0.0000+0.0000j 0.0000+0.0000j 0.0000+0.0000j
709       0.0000+0.0000j 0.0000+0.0000j 0.0000+0.0000j
731       0.0000+0.0000j 0.0000+0.0000j 0.0000+0.0000j
710       0.0000+0.0000j 0.0000+0.0000j 0.0000+0.0000j
735       0.0000+0.0000j 0.0000+0.0000j 0.0000+0.0000j
736       0.0000+0.0000j 0.0000+0.0000j 0.0000+0.0000j
711       0.0000+0.0000j 0.0000+0.0000j 0.0000+0.0000j
741       0.0000+0.0000j 0.0000+0.0000j 0.0000+0.0000j
740       0.0000+0.0000j 0.0000+0.0000j 0.0000+0.0000j
718       0.0000+0.0000j 0.0000+0.0000j 0.0000+0.0000j
744       0.0000+0.0000j 0.0000+0.0000j 0.0000+0.0000j
734       0.0000+0.0000j 0.0000+0.0000j 0.0000+0.0000j
737       0.0001+0.0000j 0.0001+0.0000j 0.0000+0.0000j
738       0.0001+0.0000j 0.0001+0.0000j 0.0000+0.0000j
728       0.0000+0.0000j 0.0000+0.0000j 0.0000+0.0000j
729       0.0000+0.0000j 0.0000+0.0000j 0.0000+0.0000j
799r      0.0000+0.0000j 0.0000+0.0000j 0.0000+0.0000j
799       0.0000+0.0000j 0.0000+0.0000j 0.0000+0.0000j
775       0.0000+0.0000j 0.0000+0.0000j 0.0000+0.0000j 

~~~~~~~~~~~~~~~~~~~~~~~~~~~~~~~~~~~~~~~~~~~~~~~~~~~~~~~~~~~~~~~~~~~~~~~~~~~~~~~~~~~~~~~~~~~~~~~~~~~~ 

Total node power comparison, from opendss voltage solution
TOTAL NODE POWERS (kW/kVAR) - SUMMARY STATS
                      A      B      C
MAX |fbs - dss|  0.0142 0.0008 0.0012
SUM |fbs - dss|  0.0900 0.0057 0.0053
MEAN |fbs - dss| 0.0023 0.0001 0.0001 

TOTAL NODE POWERS (kW/kVAR) - ERROR, |fbs - dss|:
            A.(fbs - dss)   B.(fbs - dss)   C.(fbs - dss)
sourcebus  0.0000+0.0000j  0.0000+0.0000j  0.0000+0.0000j
701       -0.0056-0.0028j -0.0007-0.0004j -0.0001-0.0001j
702        0.0000+0.0000j  0.0000+0.0000j  0.0000+0.0000j
705        0.0000+0.0000j  0.0000+0.0000j  0.0000+0.0000j
713       -0.0018-0.0009j  0.0000+0.0000j -0.0000-0.0000j
703        0.0000+0.0000j  0.0000+0.0000j  0.0000+0.0000j
727       -0.0014-0.0007j  0.0000+0.0000j  0.0001+0.0000j
730       -0.0040-0.0019j  0.0000+0.0000j  0.0003+0.0001j
704        0.0000+0.0000j  0.0000+0.0000j  0.0000+0.0000j
714       -0.0004-0.0002j -0.0002-0.0001j -0.0000-0.0000j
720       -0.0019-0.0009j  0.0000+0.0000j -0.0001-0.0000j
742       -0.0002-0.0001j -0.0004-0.0002j -0.0000-0.0000j
712       -0.0018-0.0009j  0.0000+0.0000j -0.0000-0.0000j
706        0.0000+0.0000j  0.0000+0.0000j  0.0000+0.0000j
725        0.0000+0.0000j -0.0002-0.0001j -0.0000-0.0000j
...